Circuit: * C:\Users\rakhvato\Documents\home\event_cal\spice\sch.asc

Warning: Multiple definitions of model "2scr375p" Type: BJT
Warning: Multiple definitions of model "bc857b" Type: BJT
Warning: Multiple definitions of model "bc847c" Type: BJT
Warning: Multiple definitions of model "bc847b" Type: BJT
WARNING: Less than two connections to node u1:ika.  This node is used by h:u1:_h8:_h8.
WARNING: Less than two connections to node u1:n16985445.  This node is used by v:u1:_v19.
dclamp: Emission coefficient, N=0.001, too small, limited to 0.1
Per .tran options, skipping operating point for transient analysis.
Ignoring empty pin current: Ix(u1:11)
Changing Tseed to 1e-08

Date: Mon Jul 10 16:21:52 2023
Total elapsed time: 0.830 seconds.

tnom = 27
temp = 27
method = modified trap
totiter = 128436
traniter = 128436
tranpoints = 53703
accept = 37992
rejected = 15710
matrix size = 62
fillins = 67
solver = Normal
Avg thread counts: 1.0/1.1/1.1/1.0
Matrix Compiler1: 6.85 KB object code size  2.0/1.3/[1.0]
Matrix Compiler2: 5.77 KB object code size  0.5/0.8/[0.3]

